Version 4.1
SHEET 1 1044 680
WIRE -112 -128 -224 -128
WIRE -48 -128 -112 -128
WIRE 48 -128 -48 -128
WIRE 224 -128 48 -128
WIRE -224 -112 -224 -128
WIRE -112 -96 -112 -128
WIRE -48 -96 -48 -128
WIRE 224 -96 224 -128
WIRE 48 -48 48 -128
WIRE 64 -48 48 -48
WIRE 416 -48 384 -48
WIRE 576 -48 496 -48
WIRE -224 -16 -224 -32
WIRE -112 -16 -112 -32
WIRE -48 -16 -48 -32
WIRE -16 64 -32 64
WIRE 64 64 48 64
WIRE 416 64 384 64
WIRE 416 80 416 64
WIRE 416 176 416 144
WIRE 416 176 384 176
WIRE 464 176 416 176
WIRE 576 176 576 -48
WIRE 576 176 544 176
WIRE 688 176 576 176
WIRE 768 176 688 176
WIRE 864 176 768 176
WIRE 576 192 576 176
WIRE 688 192 688 176
WIRE 768 192 768 176
WIRE 864 192 864 176
WIRE -176 288 -224 288
WIRE -80 288 -96 288
WIRE 64 288 -80 288
WIRE 576 288 576 272
WIRE 576 288 384 288
WIRE 688 288 688 256
WIRE 768 288 768 256
WIRE 864 288 864 272
WIRE -224 304 -224 288
WIRE -80 304 -80 288
WIRE 576 304 576 288
WIRE -224 384 -224 368
WIRE -80 384 -80 368
WIRE -16 400 -32 400
WIRE 64 400 48 400
WIRE 400 400 384 400
WIRE 496 400 480 400
WIRE 576 400 576 384
WIRE 224 464 224 448
FLAG -32 400 0
FLAG 224 464 0
FLAG 576 400 0
FLAG 496 400 0
FLAG -224 384 0
FLAG -224 -16 0
FLAG 688 288 0
FLAG 864 288 0
FLAG 864 176 OUT
FLAG -224 -128 IN
FLAG -32 64 0
FLAG -80 384 0
FLAG -48 -16 0
FLAG 768 288 0
FLAG -112 -16 0
SYMBOL cap 48 384 R90
WINDOW 0 0 32 VBottom 2
WINDOW 3 32 32 VTop 2
SYMATTR InstName C1
SYMATTR Value 22n
SYMBOL ind 448 192 R270
WINDOW 0 32 56 VTop 2
WINDOW 3 5 56 VBottom 2
SYMATTR InstName L1
SYMATTR Value 3.3µ
SYMATTR SpiceLine Ipk=18.6 Rser=0.0108 Rpar=0 Cpar=0 mfg="Vishay" pn="IHLP4040DZ01-3R3"
SYMBOL res 560 176 R0
SYMATTR InstName R1
SYMATTR Value 10K
SYMATTR SpiceLine tol=1 pwr=0.125
SYMBOL res 560 288 R0
SYMATTR InstName R2
SYMATTR Value 2.21k
SYMATTR SpiceLine tol=1 pwr=0.125
SYMBOL cap 400 80 R0
SYMATTR InstName C2
SYMATTR Value 0.1µ
SYMATTR SpiceLine V=16 Irms=0 Rser=0.2 Lser=0
SYMBOL res 384 416 R270
WINDOW 0 32 56 VTop 2
WINDOW 3 0 56 VBottom 2
SYMATTR InstName R3
SYMATTR Value 100k
SYMATTR SpiceLine tol=1 pwr=0.125
SYMBOL cap -240 304 R0
SYMATTR InstName C4
SYMATTR Value 1500p
SYMATTR SpiceLine V=50 Irms=0 Rser=0 Lser=0
SYMBOL res -80 272 R90
WINDOW 0 0 56 VBottom 2
WINDOW 3 32 56 VTop 2
SYMATTR InstName R4
SYMATTR Value 31.6k
SYMATTR SpiceLine tol=1 pwr=0.125
SYMBOL voltage -224 -128 R0
WINDOW 123 0 0 Left 2
WINDOW 39 0 0 Left 2
SYMATTR InstName V1
SYMATTR Value 12
SYMBOL res 512 -64 R90
WINDOW 0 0 56 VBottom 2
WINDOW 3 32 56 VTop 2
SYMATTR InstName R5
SYMATTR Value 100K
SYMBOL cap 48 48 R90
WINDOW 0 0 32 VBottom 2
WINDOW 3 32 32 VTop 2
SYMATTR InstName C5
SYMATTR Value 1µ
SYMATTR SpiceLine V=16
SYMBOL ADP2384 224 176 R0
SYMATTR InstName U1
SYMBOL cap -96 304 R0
SYMATTR InstName C6
SYMATTR Value 4.7p
SYMATTR SpiceLine V=50
SYMBOL res 848 176 R0
SYMATTR InstName Rload
SYMATTR Value 825m
SYMBOL cap -64 -96 R0
SYMATTR InstName C7
SYMATTR Value 10µ
SYMATTR SpiceLine V=25
SYMBOL cap 672 192 R0
SYMATTR InstName C3
SYMATTR Value 47µ
SYMATTR SpiceLine V=10
SYMBOL cap 752 192 R0
SYMATTR InstName C8
SYMATTR Value 47µ
SYMATTR SpiceLine V=10
SYMBOL cap -128 -96 R0
SYMATTR InstName C9
SYMATTR Value 10µ
SYMATTR SpiceLine V=25
TEXT 664 424 Left 2 !.tran 6m startup
